14
Properties=species:S:1:pos:R:3 pbc="F F F"
N       13.30757006     -15.62016455       6.28559538
C       13.11953832     -15.50445624       4.84578058
C       14.41884839     -15.81587424       4.10613324
O       15.51249446     -15.60579120       4.62718927
C       12.66804516     -14.08621115       4.49147028
C       11.47297840     -13.59698933       5.25385827
C       11.47229545     -12.71100491       6.29651888
C       10.09735648     -13.93333724       5.00511054
N       10.18415376     -12.49297141       6.72504470
C        9.32028537     -13.21964316       5.94026093
C        9.44981336     -14.77411800       4.08425137
C        7.92868134     -13.32510825       5.99063306
C        8.07707934     -14.87385127       4.12573142
C        7.32038397     -14.14646107       5.07313927
