14
Properties=species:S:1:pos:R:3 pbc="F F F"
N        9.12409649     -16.86708788      -0.70774682
C        9.67753810     -16.86892595       0.64974425
C       10.78430752     -15.82756406       0.80737317
O       11.79031078     -16.06660234       1.47911355
C       10.18376686     -18.25839844       1.04294094
C       10.15992544     -18.48199443       2.54995701
C       11.23921064     -18.63294435       3.37461305
C        8.99537257     -18.56884760       3.39239818
N       10.81990141     -18.81505753       4.67169961
C        9.44985392     -18.77657390       4.71148479
C        7.61574340     -18.49371557       3.15882264
C        8.57553402     -18.92366800       5.79429828
C        6.74382371     -18.62349778       4.24236942
C        7.22661333     -18.84000052       5.53962450
